V1 5 0 1
R3 5 1 1000
#G1 2 1 0.6 1e-15*(exp((V_1-V_2)/0.025875) - 1)
#G1 2 1 0.6 1e-15*(exp((V(1)-V(2))/0.025875) - 1)
R1 0 2 1000
C1 0 2 1e-5

#C2 1 0 1e-5

#R2 1 3 0.001
#C2 3 2 1e-9

K1 0 2 1e-10 1e-11*(1-((V(2))/1))

.model D D(IS =1e-15,UT = 0.025875, RS = 0.1)
D1 1 2 D

