
.model 2N2222 NPN(IS=1E-14,VAF=100, BF=200, IKF=0.3, XTB=1.5, BR=3, CJC=8E-12, CJE=25E-12, TR=100E-9, TF=400E-12, ITF=1, VTF=2, XTF=3, RB=10, RC=0.3, RE=0.2)


Q1 N002 N008 N009 0 2N2222
C1 N007 N006 1e-6
R1 N001 N008 33e3
R2 N008 0 6.2e3
R3 N001 N002 2e3
R4 N009 0 0.5e3
C2 N010 0 100e-6
C3 N004 N003 1e-6
V1 N005 0 1
V2 N001 0 15
R5 N004 0 100e3
R6 N003 N002 0.001
R7 N008 N007 0.001
R8 N006 N005 0.001
R9 N010 N009 0.001