V1 1 0 1
R1 1 2 0.1
G1 3 2 0.6 1e-15*(exp((V_2-V_3)/0.025875) - 1)
R2 0 3 1000
.model D1 D(IS =1e-15, VT = 1312)