V1 1 0 1
#R1 1 2 0.1
#G1 3 2 0.6 1e-15*(exp((V(2)-V(3))/0.025875) - 1)
R2 0 3 1000

.model D D(IS =1e-15,UT = 0.025875, RS = 0.1)
D1 1 3 D