.model D D(IS =1e-15,UT = 0.025875, RS = 0.1)

V1 1 0 1

D1 1 2 D
C2 0 2 1e-5
R2 0 2 1000

D2 2 3 D
R1 0 3 1000
C1 0 3 1e-5








