
.model D D(IS =1e-15,UT = 0.025875, RS = 0.1)
V1 1 0 1

D1 1 2 D
R1 0 2 1000
C1 0 2 1e-5

D2 2 3 D
R2 0 3 1000
C2 0 3 1e-5

D3 3 4 D
R3 0 4 1000
C3 0 4 1e-5

D4 4 5 D
R4 0 5 1000
C4 0 5 1e-5
